NOVO24/1726526/Reguladores.dss
! REGULADORES — gerados de UNREMT
! vreg = 122 V e band = 2 V — AJUSTES TIPICOS, nao de campo.
! kVA = 5000 adotado; a BDGD nao traz a potencia do regulador.
! O ptratio segue a tensao de cada alimentador (TP para 120 V).
New Transformer.REG_351043719_1 phases=1 windings=2 XHL=0.04
~ buses=[segm_351043768.1 segm_351043707.1] conns=[wye wye]
~ kVs=[7.9674 7.9674] kVAs=[5000 5000] %Rs=[0.01 0.01]
~ maxtap=1.10 mintap=0.90 numtaps=32
New RegControl.RC_REG_351043719_1 transformer=REG_351043719_1 winding=2 vreg=122 band=2 ptratio=66.4 delay=15 maxtapchange=1
New Transformer.REG_351043719_2 phases=1 windings=2 XHL=0.04
~ buses=[segm_351043768.2 segm_351043707.2] conns=[wye wye]
~ kVs=[7.9674 7.9674] kVAs=[5000 5000] %Rs=[0.01 0.01]
~ maxtap=1.10 mintap=0.90 numtaps=32
New RegControl.RC_REG_351043719_2 transformer=REG_351043719_2 winding=2 vreg=122 band=2 ptratio=66.4 delay=15 maxtapchange=1
New Transformer.REG_351043719_3 phases=1 windings=2 XHL=0.04
~ buses=[segm_351043768.3 segm_351043707.3] conns=[wye wye]
~ kVs=[7.9674 7.9674] kVAs=[5000 5000] %Rs=[0.01 0.01]
~ maxtap=1.10 mintap=0.90 numtaps=32
New RegControl.RC_REG_351043719_3 transformer=REG_351043719_3 winding=2 vreg=122 band=2 ptratio=66.4 delay=15 maxtapchange=1
New Transformer.REG_351043793_1 phases=1 windings=2 XHL=0.04
~ buses=[segm_351043781.1 segm_351043842.1] conns=[wye wye]
~ kVs=[7.9674 7.9674] kVAs=[5000 5000] %Rs=[0.01 0.01]
~ maxtap=1.10 mintap=0.90 numtaps=32
New RegControl.RC_REG_351043793_1 transformer=REG_351043793_1 winding=2 vreg=122 band=2 ptratio=66.4 delay=15 maxtapchange=1
New Transformer.REG_351043793_2 phases=1 windings=2 XHL=0.04
~ buses=[segm_351043781.2 segm_351043842.2] conns=[wye wye]
~ kVs=[7.9674 7.9674] kVAs=[5000 5000] %Rs=[0.01 0.01]
~ maxtap=1.10 mintap=0.90 numtaps=32
New RegControl.RC_REG_351043793_2 transformer=REG_351043793_2 winding=2 vreg=122 band=2 ptratio=66.4 delay=15 maxtapchange=1
New Transformer.REG_351043793_3 phases=1 windings=2 XHL=0.04
~ buses=[segm_351043781.3 segm_351043842.3] conns=[wye wye]
~ kVs=[7.9674 7.9674] kVAs=[5000 5000] %Rs=[0.01 0.01]
~ maxtap=1.10 mintap=0.90 numtaps=32
New RegControl.RC_REG_351043793_3 transformer=REG_351043793_3 winding=2 vreg=122 band=2 ptratio=66.4 delay=15 maxtapchange=1
New Transformer.REG_351043867_1 phases=1 windings=2 XHL=0.04
~ buses=[segm_351043916.1 segm_351043855.1] conns=[wye wye]
~ kVs=[7.9674 7.9674] kVAs=[5000 5000] %Rs=[0.01 0.01]
~ maxtap=1.10 mintap=0.90 numtaps=32
New RegControl.RC_REG_351043867_1 transformer=REG_351043867_1 winding=2 vreg=122 band=2 ptratio=66.4 delay=15 maxtapchange=1
New Transformer.REG_351043867_2 phases=1 windings=2 XHL=0.04
~ buses=[segm_351043916.2 segm_351043855.2] conns=[wye wye]
~ kVs=[7.9674 7.9674] kVAs=[5000 5000] %Rs=[0.01 0.01]
~ maxtap=1.10 mintap=0.90 numtaps=32
New RegControl.RC_REG_351043867_2 transformer=REG_351043867_2 winding=2 vreg=122 band=2 ptratio=66.4 delay=15 maxtapchange=1
New Transformer.REG_351043867_3 phases=1 windings=2 XHL=0.04
~ buses=[segm_351043916.3 segm_351043855.3] conns=[wye wye]
~ kVs=[7.9674 7.9674] kVAs=[5000 5000] %Rs=[0.01 0.01]
~ maxtap=1.10 mintap=0.90 numtaps=32
New RegControl.RC_REG_351043867_3 transformer=REG_351043867_3 winding=2 vreg=122 band=2 ptratio=66.4 delay=15 maxtapchange=1
New Transformer.REG_351043941_1 phases=1 windings=2 XHL=0.04
~ buses=[segm_351043929.1 segm_351043990.1] conns=[wye wye]
~ kVs=[7.9674 7.9674] kVAs=[5000 5000] %Rs=[0.01 0.01]
~ maxtap=1.10 mintap=0.90 numtaps=32
New RegControl.RC_REG_351043941_1 transformer=REG_351043941_1 winding=2 vreg=122 band=2 ptratio=66.4 delay=15 maxtapchange=1
New Transformer.REG_351043941_2 phases=1 windings=2 XHL=0.04
~ buses=[segm_351043929.2 segm_351043990.2] conns=[wye wye]
~ kVs=[7.9674 7.9674] kVAs=[5000 5000] %Rs=[0.01 0.01]
~ maxtap=1.10 mintap=0.90 numtaps=32
New RegControl.RC_REG_351043941_2 transformer=REG_351043941_2 winding=2 vreg=122 band=2 ptratio=66.4 delay=15 maxtapchange=1
New Transformer.REG_351043941_3 phases=1 windings=2 XHL=0.04
~ buses=[segm_351043929.3 segm_351043990.3] conns=[wye wye]
~ kVs=[7.9674 7.9674] kVAs=[5000 5000] %Rs=[0.01 0.01]
~ maxtap=1.10 mintap=0.90 numtaps=32
New RegControl.RC_REG_351043941_3 transformer=REG_351043941_3 winding=2 vreg=122 band=2 ptratio=66.4 delay=15 maxtapchange=1
New Transformer.REG_351044015_1 phases=1 windings=2 XHL=0.04
~ buses=[segm_351044064.1 segm_351044003.1] conns=[wye wye]
~ kVs=[7.9674 7.9674] kVAs=[5000 5000] %Rs=[0.01 0.01]
~ maxtap=1.10 mintap=0.90 numtaps=32
New RegControl.RC_REG_351044015_1 transformer=REG_351044015_1 winding=2 vreg=122 band=2 ptratio=66.4 delay=15 maxtapchange=1
New Transformer.REG_351044015_2 phases=1 windings=2 XHL=0.04
~ buses=[segm_351044064.2 segm_351044003.2] conns=[wye wye]
~ kVs=[7.9674 7.9674] kVAs=[5000 5000] %Rs=[0.01 0.01]
~ maxtap=1.10 mintap=0.90 numtaps=32
New RegControl.RC_REG_351044015_2 transformer=REG_351044015_2 winding=2 vreg=122 band=2 ptratio=66.4 delay=15 maxtapchange=1
New Transformer.REG_351044015_3 phases=1 windings=2 XHL=0.04
~ buses=[segm_351044064.3 segm_351044003.3] conns=[wye wye]
~ kVs=[7.9674 7.9674] kVAs=[5000 5000] %Rs=[0.01 0.01]
~ maxtap=1.10 mintap=0.90 numtaps=32
New RegControl.RC_REG_351044015_3 transformer=REG_351044015_3 winding=2 vreg=122 band=2 ptratio=66.4 delay=15 maxtapchange=1
New Transformer.REG_351044163_1 phases=1 windings=2 XHL=0.04
~ buses=[segm_351044212.1 segm_351044151.1] conns=[wye wye]
~ kVs=[7.9674 7.9674] kVAs=[5000 5000] %Rs=[0.01 0.01]
~ maxtap=1.10 mintap=0.90 numtaps=32
New RegControl.RC_REG_351044163_1 transformer=REG_351044163_1 winding=2 vreg=122 band=2 ptratio=66.4 delay=15 maxtapchange=1
New Transformer.REG_351044163_2 phases=1 windings=2 XHL=0.04
~ buses=[segm_351044212.2 segm_351044151.2] conns=[wye wye]
~ kVs=[7.9674 7.9674] kVAs=[5000 5000] %Rs=[0.01 0.01]
~ maxtap=1.10 mintap=0.90 numtaps=32
New RegControl.RC_REG_351044163_2 transformer=REG_351044163_2 winding=2 vreg=122 band=2 ptratio=66.4 delay=15 maxtapchange=1
New Transformer.REG_351044163_3 phases=1 windings=2 XHL=0.04
~ buses=[segm_351044212.3 segm_351044151.3] conns=[wye wye]
~ kVs=[7.9674 7.9674] kVAs=[5000 5000] %Rs=[0.01 0.01]
~ maxtap=1.10 mintap=0.90 numtaps=32
New RegControl.RC_REG_351044163_3 transformer=REG_351044163_3 winding=2 vreg=122 band=2 ptratio=66.4 delay=15 maxtapchange=1
New Transformer.REG_351044237_1 phases=1 windings=2 XHL=0.04
~ buses=[segm_351044286.1 segm_351044225.1] conns=[wye wye]
~ kVs=[7.9674 7.9674] kVAs=[5000 5000] %Rs=[0.01 0.01]
~ maxtap=1.10 mintap=0.90 numtaps=32
New RegControl.RC_REG_351044237_1 transformer=REG_351044237_1 winding=2 vreg=122 band=2 ptratio=66.4 delay=15 maxtapchange=1
New Transformer.REG_351044237_2 phases=1 windings=2 XHL=0.04
~ buses=[segm_351044286.2 segm_351044225.2] conns=[wye wye]
~ kVs=[7.9674 7.9674] kVAs=[5000 5000] %Rs=[0.01 0.01]
~ maxtap=1.10 mintap=0.90 numtaps=32
New RegControl.RC_REG_351044237_2 transformer=REG_351044237_2 winding=2 vreg=122 band=2 ptratio=66.4 delay=15 maxtapchange=1
New Transformer.REG_351044237_3 phases=1 windings=2 XHL=0.04
~ buses=[segm_351044286.3 segm_351044225.3] conns=[wye wye]
~ kVs=[7.9674 7.9674] kVAs=[5000 5000] %Rs=[0.01 0.01]
~ maxtap=1.10 mintap=0.90 numtaps=32
New RegControl.RC_REG_351044237_3 transformer=REG_351044237_3 winding=2 vreg=122 band=2 ptratio=66.4 delay=15 maxtapchange=1
New Transformer.REG_351044311_1 phases=1 windings=2 XHL=0.04
~ buses=[segm_351044360.1 segm_351044299.1] conns=[wye wye]
~ kVs=[7.9674 7.9674] kVAs=[5000 5000] %Rs=[0.01 0.01]
~ maxtap=1.10 mintap=0.90 numtaps=32
New RegControl.RC_REG_351044311_1 transformer=REG_351044311_1 winding=2 vreg=122 band=2 ptratio=66.4 delay=15 maxtapchange=1
New Transformer.REG_351044311_2 phases=1 windings=2 XHL=0.04
~ buses=[segm_351044360.2 segm_351044299.2] conns=[wye wye]
~ kVs=[7.9674 7.9674] kVAs=[5000 5000] %Rs=[0.01 0.01]
~ maxtap=1.10 mintap=0.90 numtaps=32
New RegControl.RC_REG_351044311_2 transformer=REG_351044311_2 winding=2 vreg=122 band=2 ptratio=66.4 delay=15 maxtapchange=1
New Transformer.REG_351044311_3 phases=1 windings=2 XHL=0.04
~ buses=[segm_351044360.3 segm_351044299.3] conns=[wye wye]
~ kVs=[7.9674 7.9674] kVAs=[5000 5000] %Rs=[0.01 0.01]
~ maxtap=1.10 mintap=0.90 numtaps=32
New RegControl.RC_REG_351044311_3 transformer=REG_351044311_3 winding=2 vreg=122 band=2 ptratio=66.4 delay=15 maxtapchange=1
New Transformer.REG_351044385_1 phases=1 windings=2 XHL=0.04
~ buses=[segm_351044434.1 segm_351044373.1] conns=[wye wye]
~ kVs=[7.9674 7.9674] kVAs=[5000 5000] %Rs=[0.01 0.01]
~ maxtap=1.10 mintap=0.90 numtaps=32
New RegControl.RC_REG_351044385_1 transformer=REG_351044385_1 winding=2 vreg=122 band=2 ptratio=66.4 delay=15 maxtapchange=1
New Transformer.REG_351044385_2 phases=1 windings=2 XHL=0.04
~ buses=[segm_351044434.2 segm_351044373.2] conns=[wye wye]
~ kVs=[7.9674 7.9674] kVAs=[5000 5000] %Rs=[0.01 0.01]
~ maxtap=1.10 mintap=0.90 numtaps=32
New RegControl.RC_REG_351044385_2 transformer=REG_351044385_2 winding=2 vreg=122 band=2 ptratio=66.4 delay=15 maxtapchange=1
New Transformer.REG_351044385_3 phases=1 windings=2 XHL=0.04
~ buses=[segm_351044434.3 segm_351044373.3] conns=[wye wye]
~ kVs=[7.9674 7.9674] kVAs=[5000 5000] %Rs=[0.01 0.01]
~ maxtap=1.10 mintap=0.90 numtaps=32
New RegControl.RC_REG_351044385_3 transformer=REG_351044385_3 winding=2 vreg=122 band=2 ptratio=66.4 delay=15 maxtapchange=1
New Transformer.REG_1223472677_1 phases=1 windings=2 XHL=0.04
~ buses=[segm_1223472665.1 segm_1223472702.1] conns=[wye wye]
~ kVs=[7.9674 7.9674] kVAs=[5000 5000] %Rs=[0.01 0.01]
~ maxtap=1.10 mintap=0.90 numtaps=32
New RegControl.RC_REG_1223472677_1 transformer=REG_1223472677_1 winding=2 vreg=122 band=2 ptratio=66.4 delay=15 maxtapchange=1
New Transformer.REG_1223472677_2 phases=1 windings=2 XHL=0.04
~ buses=[segm_1223472665.2 segm_1223472702.2] conns=[wye wye]
~ kVs=[7.9674 7.9674] kVAs=[5000 5000] %Rs=[0.01 0.01]
~ maxtap=1.10 mintap=0.90 numtaps=32
New RegControl.RC_REG_1223472677_2 transformer=REG_1223472677_2 winding=2 vreg=122 band=2 ptratio=66.4 delay=15 maxtapchange=1
New Transformer.REG_1223472677_3 phases=1 windings=2 XHL=0.04
~ buses=[segm_1223472665.3 segm_1223472702.3] conns=[wye wye]
~ kVs=[7.9674 7.9674] kVAs=[5000 5000] %Rs=[0.01 0.01]
~ maxtap=1.10 mintap=0.90 numtaps=32
New RegControl.RC_REG_1223472677_3 transformer=REG_1223472677_3 winding=2 vreg=122 band=2 ptratio=66.4 delay=15 maxtapchange=1
New Transformer.REG_2052167570_1 phases=1 windings=2 XHL=0.04
~ buses=[segm_2052167628.1 segm_2052167577.1] conns=[wye wye]
~ kVs=[7.9674 7.9674] kVAs=[5000 5000] %Rs=[0.01 0.01]
~ maxtap=1.10 mintap=0.90 numtaps=32
New RegControl.RC_REG_2052167570_1 transformer=REG_2052167570_1 winding=2 vreg=122 band=2 ptratio=66.4 delay=15 maxtapchange=1
New Transformer.REG_2052167570_2 phases=1 windings=2 XHL=0.04
~ buses=[segm_2052167628.2 segm_2052167577.2] conns=[wye wye]
~ kVs=[7.9674 7.9674] kVAs=[5000 5000] %Rs=[0.01 0.01]
~ maxtap=1.10 mintap=0.90 numtaps=32
New RegControl.RC_REG_2052167570_2 transformer=REG_2052167570_2 winding=2 vreg=122 band=2 ptratio=66.4 delay=15 maxtapchange=1
New Transformer.REG_2052167570_3 phases=1 windings=2 XHL=0.04
~ buses=[segm_2052167628.3 segm_2052167577.3] conns=[wye wye]
~ kVs=[7.9674 7.9674] kVAs=[5000 5000] %Rs=[0.01 0.01]
~ maxtap=1.10 mintap=0.90 numtaps=32
New RegControl.RC_REG_2052167570_3 transformer=REG_2052167570_3 winding=2 vreg=122 band=2 ptratio=66.4 delay=15 maxtapchange=1
New Transformer.REG_2482859598_1 phases=1 windings=2 XHL=0.04
~ buses=[segm_2482859656.1 segm_2482859605.1] conns=[wye wye]
~ kVs=[7.9674 7.9674] kVAs=[5000 5000] %Rs=[0.01 0.01]
~ maxtap=1.10 mintap=0.90 numtaps=32
New RegControl.RC_REG_2482859598_1 transformer=REG_2482859598_1 winding=2 vreg=122 band=2 ptratio=66.4 delay=15 maxtapchange=1
New Transformer.REG_2482859598_2 phases=1 windings=2 XHL=0.04
~ buses=[segm_2482859656.2 segm_2482859605.2] conns=[wye wye]
~ kVs=[7.9674 7.9674] kVAs=[5000 5000] %Rs=[0.01 0.01]
~ maxtap=1.10 mintap=0.90 numtaps=32
New RegControl.RC_REG_2482859598_2 transformer=REG_2482859598_2 winding=2 vreg=122 band=2 ptratio=66.4 delay=15 maxtapchange=1
New Transformer.REG_2482859598_3 phases=1 windings=2 XHL=0.04
~ buses=[segm_2482859656.3 segm_2482859605.3] conns=[wye wye]
~ kVs=[7.9674 7.9674] kVAs=[5000 5000] %Rs=[0.01 0.01]
~ maxtap=1.10 mintap=0.90 numtaps=32
New RegControl.RC_REG_2482859598_3 transformer=REG_2482859598_3 winding=2 vreg=122 band=2 ptratio=66.4 delay=15 maxtapchange=1
